Warning: can't find the initialization file spinit.

Note: No compatibility mode selected!

warning, can't find model 'cload' from line
    cload y 0 cload

Circuit: * inverter 2 transistors

Doing analysis at TEMP = 27.000000 and TNOM = 27.000000

Using SPARSE 1.3 as Direct Linear Solver
Warning: toxe, toxp and dtox all given and toxe != toxp + dtox; dtox ignored.

Checking parameters for BSIM 4.5 model nmos
Warning: ckappas = 0.01 is too small.
Warning: ckappad = 0.01 is too small.
Warning: toxe, toxp and dtox all given and toxe != toxp + dtox; dtox ignored.

Initial Transient Solution
--------------------------

Node                                   Voltage
----                                   -------
y                                      1.78607
a                                            0
vdd                                        1.8
vin#branch                         6.67049e-07
vdd#branch                        -1.24006e-06


No. of Data Rows : 2560

Warning: command 'plot' is not available during batch simulation, ignored!
    You may use Gnuplot instead.

Note: Simulation executed from .control section 
